<?xml version="1.0" encoding="UTF-8"?>

<!-- generated on 2023-05-29 05:03:29.632351 by osmWebWizard.py v1_17_0+0000-737931d58da
<configuration>
    <net-file value="C:\Users\Cybor\Desktop\Traffic-net-main\2023-05-29-05-02-21\osm.net.xml.gz"/>
    <output-trip-file value="C:\Users\Cybor\Desktop\Traffic-net-main\2023-05-29-05-02-21\osm.passenger.trips.xml"/>
    <route-file value="C:\Users\Cybor\Desktop\Traffic-net-main\2023-05-29-05-02-21\osm.passenger.rou.xml"/>
    <prefix value="veh"/>
    <trip-attributes value="departLane=&quot;best&quot;"/>
    <fringe-start-attributes value="departSpeed=&quot;max&quot;"/>
    <lanes value="True"/>
    <fringe-factor value="5"/>
    <allow-fringe.min-length value="1000.0"/>
    <min-distance value="300.0"/>
    <min-distance.fringe value="10.0"/>
    <vehicle-class value="passenger"/>
    <remove-loops value="True"/>
    <via-edge-types value="highway.motorway,highway.motorway_link,highway.trunk_link,highway.primary_link,highway.secondary_link,highway.tertiary_link"/>
    <validate value="True"/>
    <insertion-density value="12.0"/>
</configuration>
-->

<!-- generated on 2023-05-29 05:03:10 by Eclipse SUMO duarouter Version 1.17.0
<configuration xmlns:xsi="http://www.w3.org/2001/XMLSchema-instance" xsi:noNamespaceSchemaLocation="http://sumo.dlr.de/xsd/duarouterConfiguration.xsd">

    <input>
        <net-file value="C:\Users\Cybor\Desktop\Traffic-net-main\2023-05-29-05-02-21\osm.net.xml.gz"/>
        <route-files value="C:\Users\Cybor\Desktop\Traffic-net-main\2023-05-29-05-02-21\osm.passenger.trips.xml"/>
    </input>

    <output>
        <output-file value="C:\Users\Cybor\Desktop\Traffic-net-main\2023-05-29-05-02-21\osm.passenger.trips.xml.tmp"/>
        <alternatives-output value="NUL"/>
        <write-trips value="true"/>
    </output>

    <processing>
        <remove-loops value="true"/>
    </processing>

    <time>
        <begin value="0.0"/>
        <end value="3600.0"/>
    </time>

    <report>
        <no-warnings value="true"/>
        <ignore-errors value="true"/>
        <no-step-log value="true"/>
    </report>

</configuration>
-->

<routes xmlns:xsi="http://www.w3.org/2001/XMLSchema-instance" xsi:noNamespaceSchemaLocation="http://sumo.dlr.de/xsd/routes_file.xsd">
    <vType id="veh_passenger" vClass="passenger"/>
    <trip id="veh0" type="veh_passenger" depart="0.00" departLane="best" from="42022824#5" to="-1092161867#13"/>
    <trip id="veh1" type="veh_passenger" depart="0.52" departLane="best" from="-91040414" to="67407978#0"/>
    <trip id="veh2" type="veh_passenger" depart="1.05" departLane="best" from="741140829#0" to="541116576#2"/>
    <trip id="veh3" type="veh_passenger" depart="1.57" departLane="best" from="91040111#6" to="-174666187#1"/>
    <trip id="veh4" type="veh_passenger" depart="2.10" departLane="best" from="1164685949#2" to="1154503116#11"/>
    <trip id="veh5" type="veh_passenger" depart="2.62" departLane="best" from="-86010033" to="-174016713#2"/>
    <trip id="veh6" type="veh_passenger" depart="3.14" departLane="best" from="-1056598311#0" to="-525724622#1"/>
    <trip id="veh7" type="veh_passenger" depart="3.67" departLane="best" from="524505173" to="25228435#1"/>
    <trip id="veh8" type="veh_passenger" depart="4.19" departLane="best" from="-86981350" to="31056040#1"/>
    <trip id="veh9" type="veh_passenger" depart="4.71" departLane="best" from="90676126#6" to="-1018774964"/>
    <trip id="veh10" type="veh_passenger" depart="5.24" departLane="best" from="90656664#7-AddedOffRampEdge" to="612106154#6"/>
    <trip id="veh12" type="veh_passenger" depart="6.29" departLane="best" from="959170832#0" to="1010363069#2"/>
    <trip id="veh13" type="veh_passenger" depart="6.81" departLane="best" from="-200946320#6" to="-182276105"/>
    <trip id="veh14" type="veh_passenger" depart="7.33" departLane="best" from="90903531#2" to="31702886#1"/>
    <trip id="veh15" type="veh_passenger" depart="7.86" departLane="best" from="90676119#5" to="67407978#1"/>
    <trip id="veh16" type="veh_passenger" depart="8.38" departLane="best" departSpeed="max" from="26673690#0" to="938810495#1"/>
    <trip id="veh17" type="veh_passenger" depart="8.90" departLane="best" from="1066584939#1" to="25922460#0"/>
    <trip id="veh19" type="veh_passenger" depart="9.95" departLane="best" from="90903807#4" to="-30150668#3"/>
    <trip id="veh20" type="veh_passenger" depart="10.48" departLane="best" departSpeed="max" from="626742838#0" to="-170603150#0"/>
    <trip id="veh21" type="veh_passenger" depart="11.00" departLane="best" from="-90653497#2" to="-91040033#2"/>
    <trip id="veh22" type="veh_passenger" depart="11.52" departLane="best" from="-174387176#1" to="71496540#2"/>
    <trip id="veh23" type="veh_passenger" depart="12.05" departLane="best" departSpeed="max" from="-26674725#2" to="-90910707#0"/>
    <trip id="veh25" type="veh_passenger" depart="13.10" departLane="best" from="1056629931" to="608866139#8"/>
    <trip id="veh26" type="veh_passenger" depart="13.62" departLane="best" departSpeed="max" from="-91040147#6" to="91080636#2"/>
    <trip id="veh27" type="veh_passenger" depart="14.14" departLane="best" from="48452624#1" to="340713824#5"/>
    <trip id="veh28" type="veh_passenger" depart="14.67" departLane="best" from="47286101#1" to="67398057"/>
    <trip id="veh29" type="veh_passenger" depart="15.19" departLane="best" from="41985464#0" to="-1046882688#3"/>
    <trip id="veh30" type="veh_passenger" depart="15.71" departLane="best" from="963757947#8" to="405006315#2"/>
    <trip id="veh31" type="veh_passenger" depart="16.24" departLane="best" from="30118930#7" to="585212194#3"/>
    <trip id="veh32" type="veh_passenger" depart="16.76" departLane="best" from="90890577#2" to="85150866#1"/>
    <trip id="veh33" type="veh_passenger" depart="17.29" departLane="best" from="-90653560#3" to="-1155252529#0"/>
    <trip id="veh34" type="veh_passenger" depart="17.81" departLane="best" from="1010801471#2" to="-90890576#0"/>
    <trip id="veh35" type="veh_passenger" depart="18.33" departLane="best" from="71496549#1" to="91081398#7"/>
    <trip id="veh36" type="veh_passenger" depart="18.86" departLane="best" from="-90910966#7" to="91078594#10"/>
    <trip id="veh37" type="veh_passenger" depart="19.38" departLane="best" from="-527047201#0" to="1056598312"/>
    <trip id="veh38" type="veh_passenger" depart="19.90" departLane="best" from="910751478" to="1164686319"/>
    <trip id="veh39" type="veh_passenger" depart="20.43" departLane="best" from="-91040113#4" to="-86981357#1"/>
    <trip id="veh40" type="veh_passenger" depart="20.95" departLane="best" from="30150654#4" to="-90723493#0"/>
    <trip id="veh41" type="veh_passenger" depart="21.48" departLane="best" from="-31540274#0" to="91040211#1"/>
    <trip id="veh42" type="veh_passenger" depart="22.00" departLane="best" from="1132358850" to="625581990#5"/>
    <trip id="veh43" type="veh_passenger" depart="22.52" departLane="best" from="979690012#0" to="174387176#0"/>
    <trip id="veh44" type="veh_passenger" depart="23.05" departLane="best" departSpeed="max" from="-184365847#1" to="-172321072#0"/>
    <trip id="veh45" type="veh_passenger" depart="23.57" departLane="best" from="-29586011#6" to="37834264#2"/>
    <trip id="veh46" type="veh_passenger" depart="24.10" departLane="best" from="90653620#6" to="1092348760#2"/>
    <trip id="veh47" type="veh_passenger" depart="24.62" departLane="best" from="172351064#5" to="1050701312"/>
    <trip id="veh49" type="veh_passenger" depart="25.67" departLane="best" from="938525903#0" to="90910608#4"/>
    <trip id="veh51" type="veh_passenger" depart="26.71" departLane="best" departSpeed="max" from="609023007#0" to="241117394#2"/>
    <trip id="veh52" type="veh_passenger" depart="27.24" departLane="best" departSpeed="max" from="-91040147#6" to="-412773044#1"/>
    <trip id="veh53" type="veh_passenger" depart="27.76" departLane="best" from="-29599822#0" to="1154503115#0"/>
    <trip id="veh54" type="veh_passenger" depart="28.29" departLane="best" from="172347916#2" to="913496706#1"/>
    <trip id="veh55" type="veh_passenger" depart="28.81" departLane="best" departSpeed="max" from="90910966#0" to="90723493#4"/>
    <trip id="veh56" type="veh_passenger" depart="29.33" departLane="best" departSpeed="max" from="178529599#0" to="38964424"/>
    <trip id="veh57" type="veh_passenger" depart="29.86" departLane="best" departSpeed="max" from="910650184" to="90910914#0"/>
    <trip id="veh58" type="veh_passenger" depart="30.38" departLane="best" from="1008728264" to="39979920#0"/>
    <trip id="veh59" type="veh_passenger" depart="30.91" departLane="best" from="375278926#3" to="-31120335"/>
    <trip id="veh60" type="veh_passenger" depart="31.43" departLane="best" from="78135636#1" to="24213923#0"/>
    <trip id="veh61" type="veh_passenger" depart="31.95" departLane="best" from="905096656#3" to="226443786#0"/>
    <trip id="veh62" type="veh_passenger" depart="32.48" departLane="best" departSpeed="max" from="-1046565821#1" to="91078447#3"/>
    <trip id="veh63" type="veh_passenger" depart="33.00" departLane="best" from="90913160#5" to="908281229#0"/>
    <trip id="veh64" type="veh_passenger" depart="33.52" departLane="best" from="1010296995#11" to="-172347919"/>
    <trip id="veh65" type="veh_passenger" depart="34.05" departLane="best" from="90913158#1" to="911130116"/>
    <trip id="veh66" type="veh_passenger" depart="34.57" departLane="best" from="-175177294#4" to="172347916#0"/>
    <trip id="veh67" type="veh_passenger" depart="35.10" departLane="best" from="-172420822#0" to="77330382#3"/>
    <trip id="veh68" type="veh_passenger" depart="35.62" departLane="best" departSpeed="max" from="810848680" to="29600275#0"/>
    <trip id="veh69" type="veh_passenger" depart="36.14" departLane="best" departSpeed="max" from="172425341" to="25443338#3"/>
    <trip id="veh70" type="veh_passenger" depart="36.67" departLane="best" from="91040113#5" to="90910966#2"/>
    <trip id="veh71" type="veh_passenger" depart="37.19" departLane="best" from="1164686320" to="-612106146#1"/>
    <trip id="veh72" type="veh_passenger" depart="37.71" departLane="best" from="-26674726#0" to="67407993#0"/>
    <trip id="veh73" type="veh_passenger" depart="38.24" departLane="best" departSpeed="max" from="-679977962#2" to="91078426#0"/>
    <trip id="veh75" type="veh_passenger" depart="39.29" departLane="best" departSpeed="max" from="170480986#0" to="-175006126#1"/>
    <trip id="veh76" type="veh_passenger" depart="39.81" departLane="best" from="-30931278#1" to="-69338977#0"/>
    <trip id="veh77" type="veh_passenger" depart="40.33" departLane="best" departSpeed="max" from="1019002210" to="31054309#1"/>
    <trip id="veh78" type="veh_passenger" depart="40.86" departLane="best" from="-90653593#8" to="626438264#0"/>
    <trip id="veh79" type="veh_passenger" depart="41.38" departLane="best" departSpeed="max" from="-172422038#1" to="38964400#2"/>
    <trip id="veh80" type="veh_passenger" depart="41.91" departLane="best" from="-90653560#2" to="91040410#5"/>
    <trip id="veh81" type="veh_passenger" depart="42.43" departLane="best" from="90903701#6" to="-172424496#0"/>
    <trip id="veh82" type="veh_passenger" depart="42.95" departLane="best" from="-90882227#3" to="532004020"/>
    <trip id="veh83" type="veh_passenger" depart="43.48" departLane="best" from="-810595041" to="-30150662"/>
    <trip id="veh84" type="veh_passenger" depart="44.00" departLane="best" from="91078455#1" to="29982785#3"/>
    <trip id="veh85" type="veh_passenger" depart="44.52" departLane="best" departSpeed="max" from="172424501" to="905096660#2"/>
    <trip id="veh86" type="veh_passenger" depart="45.05" departLane="best" from="90676119#8" to="-42336677#1"/>
    <trip id="veh87" type="veh_passenger" depart="45.57" departLane="best" from="-25103452#2" to="1153629518#0"/>
    <trip id="veh88" type="veh_passenger" depart="46.10" departLane="best" from="1164690284#0" to="1176362942#1"/>
    <trip id="veh89" type="veh_passenger" depart="46.62" departLane="best" from="69338994#0" to="533052628#1"/>
    <trip id="veh90" type="veh_passenger" depart="47.14" departLane="best" from="959170827#0" to="-182384507#1"/>
    <trip id="veh91" type="veh_passenger" depart="47.67" departLane="best" from="1153629520#1" to="-1010754035#1"/>
    <trip id="veh92" type="veh_passenger" depart="48.19" departLane="best" from="90903807#4" to="-905096656#1"/>
    <trip id="veh93" type="veh_passenger" depart="48.71" departLane="best" from="-612778113#1" to="1157056766"/>
    <trip id="veh94" type="veh_passenger" depart="49.24" departLane="best" from="1164685949#2" to="90910744#3"/>
    <trip id="veh95" type="veh_passenger" depart="49.76" departLane="best" from="-90910662#2" to="91078347#5"/>
    <trip id="veh96" type="veh_passenger" depart="50.29" departLane="best" from="172318658#4" to="90910662#2"/>
    <trip id="veh97" type="veh_passenger" depart="50.81" departLane="best" from="29569558#0" to="-172323933#0"/>
    <trip id="veh98" type="veh_passenger" depart="51.33" departLane="best" from="993478904#1" to="90882231#5"/>
    <trip id="veh99" type="veh_passenger" depart="51.86" departLane="best" from="938512690#1" to="91078388#0-AddedOnRampEdge"/>
    <trip id="veh100" type="veh_passenger" depart="52.38" departLane="best" from="90903543#2" to="34580211#1"/>
    <trip id="veh101" type="veh_passenger" depart="52.91" departLane="best" from="174576197" to="-612166559"/>
    <trip id="veh102" type="veh_passenger" depart="53.43" departLane="best" from="1153629518#1" to="-172348245"/>
    <trip id="veh103" type="veh_passenger" depart="53.95" departLane="best" from="1066584939#4" to="913496708#3"/>
    <trip id="veh104" type="veh_passenger" depart="54.48" departLane="best" from="-91040120#10" to="905096660#1"/>
    <trip id="veh105" type="veh_passenger" depart="55.00" departLane="best" from="172347918#4" to="-1092348763#6"/>
    <trip id="veh106" type="veh_passenger" depart="55.52" departLane="best" from="913496708#3" to="966637527#4"/>
    <trip id="veh107" type="veh_passenger" depart="56.05" departLane="best" from="30118930#1" to="640083558"/>
    <trip id="veh108" type="veh_passenger" depart="56.57" departLane="best" from="37834262#4" to="-91040203#2"/>
    <trip id="veh109" type="veh_passenger" depart="57.10" departLane="best" from="938512690#1" to="-30837355#3"/>
    <trip id="veh110" type="veh_passenger" depart="57.62" departLane="best" from="28262287#0" to="741796915#0"/>
    <trip id="veh111" type="veh_passenger" depart="58.14" departLane="best" from="-172323398#0" to="30931286#6"/>
    <trip id="veh112" type="veh_passenger" depart="58.67" departLane="best" departSpeed="max" from="182276113#0" to="90903650#1"/>
    <trip id="veh113" type="veh_passenger" depart="59.19" departLane="best" from="-38964420#1" to="936643602#3"/>
    <trip id="veh114" type="veh_passenger" depart="59.71" departLane="best" from="-174387176#4" to="-41985517#0"/>
    <trip id="veh115" type="veh_passenger" depart="60.24" departLane="best" from="-340713825#9" to="541116574#0"/>
    <trip id="veh116" type="veh_passenger" depart="60.76" departLane="best" from="90676143#3" to="28262445#0"/>
    <trip id="veh117" type="veh_passenger" depart="61.29" departLane="best" from="91040033#1" to="86981354#3"/>
    <trip id="veh118" type="veh_passenger" depart="61.81" departLane="best" from="-340713825#12" to="-363461317#3"/>
    <trip id="veh119" type="veh_passenger" depart="62.33" departLane="best" from="1158826725" to="30931286#0"/>
    <trip id="veh121" type="veh_passenger" depart="63.38" departLane="best" from="-69338993#0" to="1009968499#0"/>
    <trip id="veh122" type="veh_passenger" depart="63.91" departLane="best" from="-90882231#5" to="1056598313"/>
    <trip id="veh123" type="veh_passenger" depart="64.43" departLane="best" from="541918785#1" to="-91040275#0"/>
    <trip id="veh124" type="veh_passenger" depart="64.95" departLane="best" from="1010801471#4" to="760790125#11"/>
    <trip id="veh125" type="veh_passenger" depart="65.48" departLane="best" departSpeed="max" from="-172424492" to="1164685950-AddedOnRampEdge"/>
    <trip id="veh126" type="veh_passenger" depart="66.00" departLane="best" from="983664942#1" to="979690012#0"/>
    <trip id="veh127" type="veh_passenger" depart="66.52" departLane="best" departSpeed="max" from="-172424502" to="-612151741#0"/>
    <trip id="veh128" type="veh_passenger" depart="67.05" departLane="best" from="-91040120#10" to="91078586#5"/>
    <trip id="veh129" type="veh_passenger" depart="67.57" departLane="best" from="90913180#8" to="90913198#0"/>
    <trip id="veh130" type="veh_passenger" depart="68.10" departLane="best" from="1056625325" to="-31702886#3"/>
    <trip id="veh131" type="veh_passenger" depart="68.62" departLane="best" from="908281228" to="62249429"/>
    <trip id="veh133" type="veh_passenger" depart="69.67" departLane="best" from="525724622#0" to="-1019043608"/>
    <trip id="veh134" type="veh_passenger" depart="70.19" departLane="best" from="90723353#7" to="-91040256#1"/>
    <trip id="veh135" type="veh_passenger" depart="70.72" departLane="best" from="535650710#1" to="91080715#6"/>
    <trip id="veh136" type="veh_passenger" depart="71.24" departLane="best" departSpeed="max" from="-31120145#1" to="-26674724#0"/>
    <trip id="veh137" type="veh_passenger" depart="71.76" departLane="best" from="-28262562#7" to="25922575#1"/>
    <trip id="veh138" type="veh_passenger" depart="72.29" departLane="best" from="-91040244#2" to="31974692#2"/>
    <trip id="veh139" type="veh_passenger" depart="72.81" departLane="best" from="649689444#3" to="-535650710#8"/>
    <trip id="veh140" type="veh_passenger" depart="73.33" departLane="best" departSpeed="max" from="41985496#0" to="-90723496#0"/>
    <trip id="veh141" type="veh_passenger" depart="73.86" departLane="best" from="174714048#0" to="91040410#4"/>
    <trip id="veh142" type="veh_passenger" depart="74.38" departLane="best" from="90903520#2" to="175280651#1"/>
    <trip id="veh143" type="veh_passenger" depart="74.91" departLane="best" from="1164690284#0" to="90910616#2"/>
    <trip id="veh144" type="veh_passenger" depart="75.43" departLane="best" from="-1010004297" to="810848681"/>
    <trip id="veh145" type="veh_passenger" depart="75.95" departLane="best" departSpeed="max" from="41985758" to="90723405#1"/>
    <trip id="veh147" type="veh_passenger" depart="77.00" departLane="best" from="172426357" to="91039966#3"/>
    <trip id="veh148" type="veh_passenger" depart="77.52" departLane="best" departSpeed="max" from="91040275#0" to="25228435#4"/>
    <trip id="veh149" type="veh_passenger" depart="78.05" departLane="best" from="908281230#0" to="30931275#0"/>
    <trip id="veh150" type="veh_passenger" depart="78.57" departLane="best" departSpeed="max" from="-34580211#7" to="-29599094#1"/>
    <trip id="veh151" type="veh_passenger" depart="79.10" departLane="best" from="1010296995#9" to="91040214#1"/>
    <trip id="veh152" type="veh_passenger" depart="79.62" departLane="best" from="90653715#0" to="90910608#4"/>
    <trip id="veh153" type="veh_passenger" depart="80.14" departLane="best" from="91040192#6" to="-609023002#1"/>
    <trip id="veh154" type="veh_passenger" depart="80.67" departLane="best" from="90910616#2" to="-184365844#0"/>
    <trip id="veh155" type="veh_passenger" depart="81.19" departLane="best" from="905096660#2" to="91039983#2"/>
    <trip id="veh156" type="veh_passenger" depart="81.72" departLane="best" from="1154503119#1" to="368374735#1"/>
    <trip id="veh157" type="veh_passenger" depart="82.24" departLane="best" from="37834262#1" to="91078455#1"/>
    <trip id="veh158" type="veh_passenger" depart="82.76" departLane="best" from="-90910680#2" to="939609073"/>
    <trip id="veh159" type="veh_passenger" depart="83.29" departLane="best" departSpeed="max" from="90676179#0" to="90913250#9"/>
    <trip id="veh160" type="veh_passenger" depart="83.81" departLane="best" from="1055739422#0" to="-69339002#4"/>
    <trip id="veh161" type="veh_passenger" depart="84.33" departLane="best" from="1016988037" to="91078503#3"/>
    <trip id="veh162" type="veh_passenger" depart="84.86" departLane="best" from="90656643#7" to="90910712#0"/>
    <trip id="veh163" type="veh_passenger" depart="85.38" departLane="best" departSpeed="max" from="90676179#0" to="-90890560#4"/>
    <trip id="veh164" type="veh_passenger" depart="85.91" departLane="best" from="90653497#1" to="-221866909#0"/>
    <trip id="veh165" type="veh_passenger" depart="86.43" departLane="best" from="90910830#0" to="90903807#4"/>
    <trip id="veh166" type="veh_passenger" depart="86.95" departLane="best" from="86981358" to="90676317#3"/>
    <trip id="veh167" type="veh_passenger" depart="87.48" departLane="best" from="-172359509#2" to="-91078238#0"/>
    <trip id="veh168" type="veh_passenger" depart="88.00" departLane="best" from="90653701#6" to="-69338994#3"/>
    <trip id="veh169" type="veh_passenger" depart="88.52" departLane="best" departSpeed="max" from="-1052921146" to="-46604455#0"/>
    <trip id="veh170" type="veh_passenger" depart="89.05" departLane="best" from="1012185083#1" to="90910712#1"/>
    <trip id="veh172" type="veh_passenger" depart="90.10" departLane="best" from="341029402#6" to="1056625328"/>
    <trip id="veh173" type="veh_passenger" depart="90.62" departLane="best" from="941989902#2" to="240970258#4"/>
    <trip id="veh174" type="veh_passenger" depart="91.14" departLane="best" from="-91078594#10" to="26674723"/>
    <trip id="veh175" type="veh_passenger" depart="91.67" departLane="best" from="938512691#6" to="-38964420#1"/>
    <trip id="veh176" type="veh_passenger" depart="92.19" departLane="best" from="936643603#5" to="90882248#2"/>
    <trip id="veh177" type="veh_passenger" depart="92.72" departLane="best" from="-28399784#2" to="1154503114#0"/>
    <trip id="veh178" type="veh_passenger" depart="93.24" departLane="best" departSpeed="max" from="69338992#0" to="-91078582#0"/>
    <trip id="veh179" type="veh_passenger" depart="93.76" departLane="best" from="368374729#3" to="-174665997#1"/>
    <trip id="veh180" type="veh_passenger" depart="94.29" departLane="best" from="1073416894#0" to="-30150654#3"/>
    <trip id="veh181" type="veh_passenger" depart="94.81" departLane="best" from="-90910966#5" to="626438260"/>
    <trip id="veh182" type="veh_passenger" depart="95.33" departLane="best" from="-1009665677#1" to="91078355#2"/>
    <trip id="veh183" type="veh_passenger" depart="95.86" departLane="best" departSpeed="max" from="26674724#0" to="-640110569#2"/>
    <trip id="veh184" type="veh_passenger" depart="96.38" departLane="best" from="745407760" to="532640168#11"/>
    <trip id="veh185" type="veh_passenger" depart="96.91" departLane="best" from="1055896287#2" to="-172422578#2"/>
    <trip id="veh186" type="veh_passenger" depart="97.43" departLane="best" from="-535754490#1" to="25839828#1"/>
    <trip id="veh187" type="veh_passenger" depart="97.95" departLane="best" from="1010801470#0" to="90903553#3"/>
    <trip id="veh188" type="veh_passenger" depart="98.48" departLane="best" from="656242037#2" to="-91040308#0"/>
    <trip id="veh189" type="veh_passenger" depart="99.00" departLane="best" from="1010327577#0" to="1066584939#7"/>
    <trip id="veh190" type="veh_passenger" depart="99.52" departLane="best" from="1153629520#0" to="-91040179#1"/>
    <trip id="veh191" type="veh_passenger" depart="100.05" departLane="best" from="-31057175#14" to="1092161868"/>
    <trip id="veh192" type="veh_passenger" depart="100.57" departLane="best" from="-91078594#9" to="541116576#3"/>
    <trip id="veh193" type="veh_passenger" depart="101.10" departLane="best" from="-91040244#0" to="353658529#2"/>
    <trip id="veh194" type="veh_passenger" depart="101.62" departLane="best" from="-1009665677#2" to="25440413#15"/>
    <trip id="veh195" type="veh_passenger" depart="102.14" departLane="best" departSpeed="max" from="-1008680856" to="-91039966#6"/>
    <trip id="veh196" type="veh_passenger" depart="102.67" departLane="best" from="1176362942#1" to="30837436#8"/>
    <trip id="veh197" type="veh_passenger" depart="103.19" departLane="best" departSpeed="max" from="525725710" to="1176361072"/>
    <trip id="veh198" type="veh_passenger" depart="103.72" departLane="best" from="170603151#1" to="-612166559"/>
    <trip id="veh199" type="veh_passenger" depart="104.24" departLane="best" departSpeed="max" from="172424504" to="-91040256#1"/>
    <trip id="veh200" type="veh_passenger" depart="104.76" departLane="best" from="90653713#2" to="-368374729#0"/>
    <trip id="veh201" type="veh_passenger" depart="105.29" departLane="best" departSpeed="max" from="-175109759#2" to="174716279#0"/>
    <trip id="veh202" type="veh_passenger" depart="105.81" departLane="best" departSpeed="max" from="41985474#0" to="1010327576#3"/>
    <trip id="veh204" type="veh_passenger" depart="106.86" departLane="best" from="579598286#0" to="-69338977#0"/>
    <trip id="veh205" type="veh_passenger" depart="107.38" departLane="best" from="-67407974#0" to="1092161867#10"/>
    <trip id="veh206" type="veh_passenger" depart="107.91" departLane="best" from="90903531#12" to="170482360#2"/>
    <trip id="veh207" type="veh_passenger" depart="108.43" departLane="best" from="90903543#5" to="172424506#5"/>
    <trip id="veh208" type="veh_passenger" depart="108.95" departLane="best" departSpeed="max" from="1157056765" to="38964126#1"/>
    <trip id="veh209" type="veh_passenger" depart="109.48" departLane="best" departSpeed="max" from="-626438255" to="90890566#1"/>
    <trip id="veh211" type="veh_passenger" depart="110.53" departLane="best" departSpeed="max" from="527047208#0" to="-1011095793#0"/>
    <trip id="veh212" type="veh_passenger" depart="111.05" departLane="best" from="77330369#6" to="78285535#3"/>
    <trip id="veh213" type="veh_passenger" depart="111.57" departLane="best" from="-28262562#2" to="1097055393#3"/>
    <trip id="veh215" type="veh_passenger" depart="112.62" departLane="best" from="24061679-AddedOnRampEdge" to="-172323932#2"/>
    <trip id="veh216" type="veh_passenger" depart="113.14" departLane="best" departSpeed="max" from="172347920" to="-90653718#1"/>
    <trip id="veh218" type="veh_passenger" depart="114.19" departLane="best" from="340713826#3" to="91334754#16"/>
    <trip id="veh219" type="veh_passenger" depart="114.72" departLane="best" from="-91040089#0" to="341029403#3"/>
    <trip id="veh220" type="veh_passenger" depart="115.24" departLane="best" from="656242036#3" to="172426356#0"/>
    <trip id="veh221" type="veh_passenger" depart="115.76" departLane="best" departSpeed="max" from="908264395#0" to="25440413#13"/>
    <trip id="veh222" type="veh_passenger" depart="116.29" departLane="best" from="-91040183#0" to="741140829#0"/>
    <trip id="veh223" type="veh_passenger" depart="116.81" departLane="best" from="172424508#1" to="-90656645#1"/>
    <trip id="veh224" type="veh_passenger" depart="117.33" departLane="best" from="-90903574#2" to="39902523#1"/>
    <trip id="veh225" type="veh_passenger" depart="117.86" departLane="best" departSpeed="max" from="810848680" to="178529599#3"/>
    <trip id="veh226" type="veh_passenger" depart="118.38" departLane="best" from="-174016865#10" to="-90913180#8"/>
    <trip id="veh227" type="veh_passenger" depart="118.91" departLane="best" departSpeed="max" from="-91040236#6" to="-91081398#4"/>
    <trip id="veh228" type="veh_passenger" depart="119.43" departLane="best" departSpeed="max" from="26674728#0" to="30931286#1"/>
    <trip id="veh229" type="veh_passenger" depart="119.95" departLane="best" from="90653620#8" to="609258714#5"/>
    <trip id="veh230" type="veh_passenger" depart="120.48" departLane="best" from="626742838#2" to="-172360233#1"/>
    <trip id="veh233" type="veh_passenger" depart="122.05" departLane="best" from="1164558948#4" to="91040374#3"/>
    <trip id="veh234" type="veh_passenger" depart="122.57" departLane="best" from="-31378212#0" to="612095035#2"/>
    <trip id="veh235" type="veh_passenger" depart="123.10" departLane="best" from="90903650#5" to="779706332#4"/>
    <trip id="veh236" type="veh_passenger" depart="123.62" departLane="best" from="1067962803#0-AddedOffRampEdge" to="-1011095793#0"/>
    <trip id="veh237" type="veh_passenger" depart="124.14" departLane="best" from="-1046882688#0" to="76159782"/>
    <trip id="veh238" type="veh_passenger" depart="124.67" departLane="best" from="90903584#1" to="913496706#0"/>
    <trip id="veh239" type="veh_passenger" depart="125.19" departLane="best" from="1158826725" to="741141189#7"/>
    <trip id="veh240" type="veh_passenger" depart="125.72" departLane="best" from="28262557#1" to="31702762#1"/>
    <trip id="veh241" type="veh_passenger" depart="126.24" departLane="best" from="-86981351#1" to="625581990#6"/>
    <trip id="veh242" type="veh_passenger" depart="126.76" departLane="best" from="170470640#1" to="1097264324#0"/>
    <trip id="veh243" type="veh_passenger" depart="127.29" departLane="best" departSpeed="max" from="1016994902#0" to="541122789#0"/>
    <trip id="veh244" type="veh_passenger" depart="127.81" departLane="best" from="1154503115#1" to="-34318835#0"/>
    <trip id="veh245" type="veh_passenger" depart="128.33" departLane="best" from="172420825#3" to="-29599822#2"/>
    <trip id="veh246" type="veh_passenger" depart="128.86" departLane="best" from="392477684#4" to="-1092348760#3"/>
    <trip id="veh247" type="veh_passenger" depart="129.38" departLane="best" from="-90910680#1" to="28399724"/>
    <trip id="veh248" type="veh_passenger" depart="129.91" departLane="best" from="1056605890#0" to="41985453#3"/>
    <trip id="veh249" type="veh_passenger" depart="130.43" departLane="best" from="-31540268#1" to="1167383044#1"/>