<?xml version="1.0" ?>
<!-- generated on 2023-04-24 03:11:05 by Eclipse SUMO netedit Version 1.16.0
<configuration xmlns:xsi="http://www.w3.org/2001/XMLSchema-instance" xsi:noNamespaceSchemaLocation="http://sumo.dlr.de/xsd/netconvertConfiguration.xsd">
    <input>
        <sumo-net-file value="C:\Users\Cybor\Desktop\Proyecto-grafos-main\yastra.net.xml"/>
    </input>
    <output>
        <output-file value="C:\Users\Cybor\Desktop\Proyecto-grafos-main\yastra.net.xml"/>
    </output>
    <processing>
        <geometry.min-radius.fix.railways value="false"/>
        <geometry.max-grade.fix value="false"/>
        <offset.disable-normalization value="true"/>
        <lefthand value="0"/>
    </processing>
    <junctions>
        <no-turnarounds value="true"/>
        <junctions.corner-detail value="5"/>
        <junctions.limit-turn-speed value="5.50"/>
        <rectangular-lane-cut value="0"/>
    </junctions>
    <pedestrian>
        <walkingareas value="0"/>
    </pedestrian>
</configuration>
-->
<net xmlns:xsi="http://www.w3.org/2001/XMLSchema-instance" version="1.16" junctionCornerDetail="5" limitTurnSpeed="5.50" xsi:noNamespaceSchemaLocation="http://sumo.dlr.de/xsd/net_file.xsd">
	<location netOffset="0.00,0.00" convBoundary="-1300.00,-700.00,-200.00,-100.00" origBoundary="-10000000000.00,-10000000000.00,10000000000.00,10000000000.00" projParameter="!"/>
	<edge id=":B_0" function="internal">
		<lane id=":B_0_0" index="0" speed="6.51" length="9.03" shape="-1201.60,-592.80 -1201.95,-595.25 -1203.00,-597.00 -1204.75,-598.05 -1207.20,-598.40"/>
	</edge>
	<edge id=":B_1" function="internal">
		<lane id=":B_1_0" index="0" speed="13.89" length="14.40" shape="-1201.60,-592.80 -1201.60,-607.20"/>
	</edge>
	<edge id=":B_2" function="internal">
		<lane id=":B_2_0" index="0" speed="8.00" length="4.07" shape="-1201.60,-592.80 -1201.05,-596.65 -1200.96,-596.80"/>
	</edge>
	<edge id=":B_12" function="internal">
		<lane id=":B_12_0" index="0" speed="8.00" length="10.13" shape="-1200.96,-596.80 -1199.40,-599.40 -1196.65,-601.05 -1192.80,-601.60"/>
	</edge>
	<edge id=":B_3" function="internal">
		<lane id=":B_3_0" index="0" speed="6.51" length="9.03" shape="-1192.80,-598.40 -1195.25,-598.05 -1197.00,-597.00 -1198.05,-595.25 -1198.40,-592.80"/>
	</edge>
	<edge id=":B_4" function="internal">
		<lane id=":B_4_0" index="0" speed="13.89" length="14.40" shape="-1192.80,-598.40 -1207.20,-598.40"/>
	</edge>
	<edge id=":B_5" function="internal">
		<lane id=":B_5_0" index="0" speed="8.00" length="14.19" shape="-1192.80,-598.40 -1196.65,-598.95 -1199.40,-600.60 -1201.05,-603.35 -1201.60,-607.20"/>
	</edge>
	<edge id=":B_6" function="internal">
		<lane id=":B_6_0" index="0" speed="6.51" length="9.03" shape="-1198.40,-607.20 -1198.05,-604.75 -1197.00,-603.00 -1195.25,-601.95 -1192.80,-601.60"/>
	</edge>
	<edge id=":B_7" function="internal">
		<lane id=":B_7_0" index="0" speed="13.89" length="14.40" shape="-1198.40,-607.20 -1198.40,-592.80"/>
	</edge>
	<edge id=":B_8" function="internal">
		<lane id=":B_8_0" index="0" speed="8.00" length="4.07" shape="-1198.40,-607.20 -1198.95,-603.35 -1199.04,-603.20"/>
	</edge>
	<edge id=":B_13" function="internal">
		<lane id=":B_13_0" index="0" speed="8.00" length="10.13" shape="-1199.04,-603.20 -1200.60,-600.60 -1203.35,-598.95 -1207.20,-598.40"/>
	</edge>
	<edge id=":B_9" function="internal">
		<lane id=":B_9_0" index="0" speed="6.51" length="9.03" shape="-1207.20,-601.60 -1204.75,-601.95 -1203.00,-603.00 -1201.95,-604.75 -1201.60,-607.20"/>
	</edge>
	<edge id=":B_10" function="internal">
		<lane id=":B_10_0" index="0" speed="13.89" length="14.40" shape="-1207.20,-601.60 -1192.80,-601.60"/>
	</edge>
	<edge id=":B_11" function="internal">
		<lane id=":B_11_0" index="0" speed="8.00" length="14.19" shape="-1207.20,-601.60 -1203.35,-601.05 -1200.60,-599.40 -1198.95,-596.65 -1198.40,-592.80"/>
	</edge>
	<edge id=":C_0" function="internal">
		<lane id=":C_0_0" index="0" speed="6.08" length="7.74" shape="-1301.60,-596.80 -1301.30,-598.90 -1300.40,-600.40 -1298.90,-601.30 -1296.80,-601.60"/>
	</edge>
	<edge id=":C_1" function="internal">
		<lane id=":C_1_0" index="0" speed="3.90" length="2.58" shape="-1296.80,-598.40 -1297.50,-598.30 -1298.00,-598.00 -1298.30,-597.50 -1298.40,-596.80"/>
	</edge>
	<edge id=":D_0" function="internal">
		<lane id=":D_0_0" index="0" speed="3.90" length="2.58" shape="-1101.60,-596.80 -1101.70,-597.50 -1102.00,-598.00 -1102.50,-598.30 -1103.20,-598.40"/>
	</edge>
	<edge id=":D_1" function="internal">
		<lane id=":D_1_0" index="0" speed="6.08" length="7.74" shape="-1103.20,-601.60 -1101.10,-601.30 -1099.60,-600.40 -1098.70,-598.90 -1098.40,-596.80"/>
	</edge>
	<edge id=":E_0" function="internal">
		<lane id=":E_0_0" index="0" speed="6.08" length="7.74" shape="-1296.80,-298.40 -1298.90,-298.70 -1300.40,-299.60 -1301.30,-301.10 -1301.60,-303.20"/>
	</edge>
	<edge id=":E_1" function="internal">
		<lane id=":E_1_0" index="0" speed="3.90" length="2.58" shape="-1298.40,-303.20 -1298.30,-302.50 -1298.00,-302.00 -1297.50,-301.70 -1296.80,-301.60"/>
	</edge>
	<edge id=":F_0" function="internal">
		<lane id=":F_0_0" index="0" speed="7.02" length="10.67" shape="-1201.60,-290.82 -1201.95,-294.14 -1203.00,-296.51 -1204.75,-297.93 -1207.20,-298.40"/>
	</edge>
	<edge id=":F_1" function="internal">
		<lane id=":F_1_0" index="0" speed="13.89" length="16.38" shape="-1201.60,-290.82 -1201.60,-307.20"/>
	</edge>
	<edge id=":F_2" function="internal">
		<lane id=":F_2_0" index="0" speed="10.36" length="2.96" shape="-1201.60,-290.82 -1200.87,-293.69"/>
	</edge>
	<edge id=":F_3" function="internal">
		<lane id=":F_3_0" index="0" speed="8.45" length="2.60" shape="-1201.60,-290.82 -1200.86,-293.31"/>
	</edge>
	<edge id=":F_20" function="internal">
		<lane id=":F_20_0" index="0" speed="10.36" length="21.56" shape="-1200.87,-293.69 -1200.40,-295.54 -1196.81,-298.91 -1190.83,-300.93 -1182.44,-301.60"/>
	</edge>
	<edge id=":F_21" function="internal">
		<lane id=":F_21_0" index="0" speed="8.45" length="20.29" shape="-1200.86,-293.31 -1200.06,-296.03 -1195.99,-297.58 -1190.22,-296.44 -1183.58,-293.58"/>
	</edge>
	<edge id=":F_4" function="internal">
		<lane id=":F_4_0" index="0" speed="7.33" length="15.88" shape="-1185.01,-290.72 -1190.87,-293.23 -1195.05,-294.09 -1197.56,-293.29 -1198.40,-290.82"/>
	</edge>
	<edge id=":F_5" function="internal">
		<lane id=":F_5_0" index="0" speed="13.89" length="23.57" shape="-1185.01,-290.72 -1189.66,-292.86 -1195.91,-295.40 -1202.25,-297.51 -1207.20,-298.40"/>
	</edge>
	<edge id=":F_6" function="internal">
		<lane id=":F_6_0" index="0" speed="12.76" length="24.37" shape="-1185.01,-290.72 -1192.27,-294.86 -1197.45,-298.99 -1200.56,-303.10 -1201.60,-307.20"/>
	</edge>
	<edge id=":F_7" function="internal">
		<lane id=":F_7_0" index="0" speed="6.26" length="15.29" shape="-1185.01,-290.72 -1187.83,-293.59 -1188.14,-297.20 -1186.25,-300.29 -1182.44,-301.60"/>
	</edge>
	<edge id=":F_8" function="internal">
		<lane id=":F_8_0" index="0" speed="5.60" length="11.85" shape="-1182.44,-298.40 -1186.56,-298.10 -1188.12,-297.20 -1187.13,-295.69 -1183.58,-293.58"/>
	</edge>
	<edge id=":F_9" function="internal">
		<lane id=":F_9_0" index="0" speed="9.28" length="19.46" shape="-1182.44,-298.40 -1189.43,-297.93 -1194.41,-296.51 -1197.40,-294.14 -1198.40,-290.82"/>
	</edge>
	<edge id=":F_10" function="internal">
		<lane id=":F_10_0" index="0" speed="13.89" length="24.76" shape="-1182.44,-298.40 -1207.20,-298.40"/>
	</edge>
	<edge id=":F_11" function="internal">
		<lane id=":F_11_0" index="0" speed="9.85" length="8.78" shape="-1182.44,-298.40 -1188.40,-299.16 -1191.05,-300.00"/>
	</edge>
	<edge id=":F_22" function="internal">
		<lane id=":F_22_0" index="0" speed="9.85" length="13.28" shape="-1191.05,-300.00 -1194.66,-301.15 -1199.60,-303.97 -1201.60,-307.20"/>
	</edge>
	<edge id=":F_12" function="internal">
		<lane id=":F_12_0" index="0" speed="8.99" length="18.20" shape="-1198.40,-307.20 -1197.40,-304.75 -1194.41,-303.00 -1189.43,-301.95 -1182.44,-301.60"/>
	</edge>
	<edge id=":F_13" function="internal">
		<lane id=":F_13_0" index="0" speed="8.45" length="20.87" shape="-1198.40,-307.20 -1197.47,-304.02 -1194.70,-300.69 -1190.07,-297.21 -1183.58,-293.58"/>
	</edge>
	<edge id=":F_14" function="internal">
		<lane id=":F_14_0" index="0" speed="13.89" length="16.38" shape="-1198.40,-307.20 -1198.40,-290.82"/>
	</edge>
	<edge id=":F_15" function="internal">
		<lane id=":F_15_0" index="0" speed="8.00" length="4.07" shape="-1198.40,-307.20 -1198.95,-303.35 -1199.04,-303.20"/>
	</edge>
	<edge id=":F_23" function="internal">
		<lane id=":F_23_0" index="0" speed="8.00" length="10.13" shape="-1199.04,-303.20 -1200.60,-300.60 -1203.35,-298.95 -1207.20,-298.40"/>
	</edge>
	<edge id=":F_16" function="internal">
		<lane id=":F_16_0" index="0" speed="6.51" length="9.03" shape="-1207.20,-301.60 -1204.75,-301.95 -1203.00,-303.00 -1201.95,-304.75 -1201.60,-307.20"/>
	</edge>
	<edge id=":F_17" function="internal">
		<lane id=":F_17_0" index="0" speed="13.89" length="24.76" shape="-1207.20,-301.60 -1182.44,-301.60"/>
	</edge>
	<edge id=":F_18" function="internal">
		<lane id=":F_18_0" index="0" speed="8.45" length="4.00" shape="-1207.20,-301.60 -1203.26,-300.89"/>
	</edge>
	<edge id=":F_19" function="internal">
		<lane id=":F_19_0" index="0" speed="8.42" length="3.91" shape="-1207.20,-301.60 -1203.35,-300.93"/>
	</edge>
	<edge id=":F_24" function="internal">
		<lane id=":F_24_0" index="0" speed="8.45" length="21.03" shape="-1203.26,-300.89 -1202.03,-300.66 -1195.19,-298.43 -1188.46,-295.78 -1183.58,-293.58"/>
	</edge>
	<edge id=":F_25" function="internal">
		<lane id=":F_25_0" index="0" speed="8.42" length="11.91" shape="-1203.35,-300.93 -1200.60,-298.91 -1198.95,-295.54 -1198.40,-290.82"/>
	</edge>
	<edge id=":G_0" function="internal">
		<lane id=":G_0_0" index="0" speed="6.08" length="7.74" shape="-1098.40,-303.20 -1098.70,-301.10 -1099.60,-299.60 -1101.10,-298.70 -1103.20,-298.40"/>
	</edge>
	<edge id=":G_1" function="internal">
		<lane id=":G_1_0" index="0" speed="3.90" length="2.58" shape="-1103.20,-301.60 -1102.50,-301.70 -1102.00,-302.00 -1101.70,-302.50 -1101.60,-303.20"/>
	</edge>
	<edge id=":H_0" function="internal">
		<lane id=":H_0_0" index="0" speed="6.08" length="7.74" shape="-1196.80,-98.40 -1198.90,-98.70 -1200.40,-99.60 -1201.30,-101.10 -1201.60,-103.20"/>
	</edge>
	<edge id=":H_1" function="internal">
		<lane id=":H_1_0" index="0" speed="3.90" length="2.58" shape="-1198.40,-103.20 -1198.30,-102.50 -1198.00,-102.00 -1197.50,-101.70 -1196.80,-101.60"/>
	</edge>
	<edge id=":I_0" function="internal">
		<lane id=":I_0_0" index="0" speed="5.79" length="12.78" shape="-811.41,-107.49 -809.06,-105.09 -808.79,-102.08 -810.38,-99.49 -813.56,-98.40"/>
	</edge>
	<edge id=":I_1" function="internal">
		<lane id=":I_1_0" index="0" speed="4.62" length="7.45" shape="-813.56,-101.60 -810.97,-101.79 -809.99,-102.36 -810.61,-103.30 -812.84,-104.63"/>
	</edge>
	<edge id=":K_0" function="internal">
		<lane id=":K_0_0" index="0" speed="6.08" length="7.74" shape="-801.60,-596.80 -801.30,-598.90 -800.40,-600.40 -798.90,-601.30 -796.80,-601.60"/>
	</edge>
	<edge id=":K_1" function="internal">
		<lane id=":K_1_0" index="0" speed="3.90" length="2.58" shape="-796.80,-598.40 -797.50,-598.30 -798.00,-598.00 -798.30,-597.50 -798.40,-596.80"/>
	</edge>
	<edge id=":L_0" function="internal">
		<lane id=":L_0_0" index="0" speed="6.51" length="9.03" shape="-701.60,-592.80 -701.95,-595.25 -703.00,-597.00 -704.75,-598.05 -707.20,-598.40"/>
	</edge>
	<edge id=":L_1" function="internal">
		<lane id=":L_1_0" index="0" speed="13.89" length="14.40" shape="-701.60,-592.80 -701.60,-607.20"/>
	</edge>
	<edge id=":L_2" function="internal">
		<lane id=":L_2_0" index="0" speed="8.00" length="4.07" shape="-701.60,-592.80 -701.05,-596.65 -700.96,-596.80"/>
	</edge>
	<edge id=":L_12" function="internal">
		<lane id=":L_12_0" index="0" speed="8.00" length="10.13" shape="-700.96,-596.80 -699.40,-599.40 -696.65,-601.05 -692.80,-601.60"/>
	</edge>
	<edge id=":L_3" function="internal">
		<lane id=":L_3_0" index="0" speed="6.51" length="9.03" shape="-692.80,-598.40 -695.25,-598.05 -697.00,-597.00 -698.05,-595.25 -698.40,-592.80"/>
	</edge>
	<edge id=":L_4" function="internal">
		<lane id=":L_4_0" index="0" speed="13.89" length="14.40" shape="-692.80,-598.40 -707.20,-598.40"/>
	</edge>
	<edge id=":L_5" function="internal">
		<lane id=":L_5_0" index="0" speed="8.00" length="14.19" shape="-692.80,-598.40 -696.65,-598.95 -699.40,-600.60 -701.05,-603.35 -701.60,-607.20"/>
	</edge>
	<edge id=":L_6" function="internal">
		<lane id=":L_6_0" index="0" speed="6.51" length="9.03" shape="-698.40,-607.20 -698.05,-604.75 -697.00,-603.00 -695.25,-601.95 -692.80,-601.60"/>
	</edge>
	<edge id=":L_7" function="internal">
		<lane id=":L_7_0" index="0" speed="13.89" length="14.40" shape="-698.40,-607.20 -698.40,-592.80"/>
	</edge>
	<edge id=":L_8" function="internal">
		<lane id=":L_8_0" index="0" speed="8.00" length="4.07" shape="-698.40,-607.20 -698.95,-603.35 -699.04,-603.20"/>
	</edge>
	<edge id=":L_13" function="internal">
		<lane id=":L_13_0" index="0" speed="8.00" length="10.13" shape="-699.04,-603.20 -700.60,-600.60 -703.35,-598.95 -707.20,-598.40"/>
	</edge>
	<edge id=":L_9" function="internal">
		<lane id=":L_9_0" index="0" speed="6.51" length="9.03" shape="-707.20,-601.60 -704.75,-601.95 -703.00,-603.00 -701.95,-604.75 -701.60,-607.20"/>
	</edge>
	<edge id=":L_10" function="internal">
		<lane id=":L_10_0" index="0" speed="13.89" length="14.40" shape="-707.20,-601.60 -692.80,-601.60"/>
	</edge>
	<edge id=":L_11" function="internal">
		<lane id=":L_11_0" index="0" speed="8.00" length="14.19" shape="-707.20,-601.60 -703.35,-601.05 -700.60,-599.40 -698.95,-596.65 -698.40,-592.80"/>
	</edge>
	<edge id=":M_0" function="internal">
		<lane id=":M_0_0" index="0" speed="3.90" length="2.58" shape="-601.60,-596.80 -601.70,-597.50 -602.00,-598.00 -602.50,-598.30 -603.20,-598.40"/>
	</edge>
	<edge id=":M_1" function="internal">
		<lane id=":M_1_0" index="0" speed="6.08" length="7.74" shape="-603.20,-601.60 -601.10,-601.30 -599.60,-600.40 -598.70,-598.90 -598.40,-596.80"/>
	</edge>
	<edge id=":N_0" function="internal">
		<lane id=":N_0_0" index="0" speed="6.08" length="7.74" shape="-796.80,-298.40 -798.90,-298.70 -800.40,-299.60 -801.30,-301.10 -801.60,-303.20"/>
	</edge>
	<edge id=":N_1" function="internal">
		<lane id=":N_1_0" index="0" speed="3.90" length="2.58" shape="-798.40,-303.20 -798.30,-302.50 -798.00,-302.00 -797.50,-301.70 -796.80,-301.60"/>
	</edge>
	<edge id=":O_0" function="internal">
		<lane id=":O_0_0" index="0" speed="7.02" length="10.67" shape="-701.60,-290.82 -701.95,-294.14 -703.00,-296.51 -704.75,-297.93 -707.20,-298.40"/>
	</edge>
	<edge id=":O_1" function="internal">
		<lane id=":O_1_0" index="0" speed="13.89" length="16.38" shape="-701.60,-290.82 -701.60,-307.20"/>
	</edge>
	<edge id=":O_2" function="internal">
		<lane id=":O_2_0" index="0" speed="10.36" length="2.96" shape="-701.60,-290.82 -700.87,-293.69"/>
	</edge>
	<edge id=":O_3" function="internal">
		<lane id=":O_3_0" index="0" speed="8.45" length="2.60" shape="-701.60,-290.82 -700.86,-293.31"/>
	</edge>
	<edge id=":O_20" function="internal">
		<lane id=":O_20_0" index="0" speed="10.36" length="21.56" shape="-700.87,-293.69 -700.40,-295.54 -696.81,-298.91 -690.83,-300.93 -682.44,-301.60"/>
	</edge>
	<edge id=":O_21" function="internal">
		<lane id=":O_21_0" index="0" speed="8.45" length="20.29" shape="-700.86,-293.31 -700.06,-296.03 -695.99,-297.58 -690.22,-296.44 -683.58,-293.58"/>
	</edge>
	<edge id=":O_4" function="internal">
		<lane id=":O_4_0" index="0" speed="7.33" length="15.88" shape="-685.01,-290.72 -690.87,-293.23 -695.05,-294.09 -697.56,-293.29 -698.40,-290.82"/>
	</edge>
	<edge id=":O_5" function="internal">
		<lane id=":O_5_0" index="0" speed="13.89" length="23.57" shape="-685.01,-290.72 -689.66,-292.86 -695.91,-295.40 -702.25,-297.51 -707.20,-298.40"/>
	</edge>
	<edge id=":O_6" function="internal">
		<lane id=":O_6_0" index="0" speed="12.76" length="24.37" shape="-685.01,-290.72 -692.27,-294.86 -697.45,-298.99 -700.56,-303.10 -701.60,-307.20"/>
	</edge>
	<edge id=":O_7" function="internal">
		<lane id=":O_7_0" index="0" speed="6.26" length="15.29" shape="-685.01,-290.72 -687.83,-293.59 -688.14,-297.20 -686.25,-300.29 -682.44,-301.60"/>
	</edge>
	<edge id=":O_8" function="internal">
		<lane id=":O_8_0" index="0" speed="5.60" length="11.85" shape="-682.44,-298.40 -686.56,-298.10 -688.12,-297.20 -687.13,-295.69 -683.58,-293.58"/>
	</edge>
	<edge id=":O_9" function="internal">
		<lane id=":O_9_0" index="0" speed="9.28" length="19.46" shape="-682.44,-298.40 -689.43,-297.93 -694.41,-296.51 -697.40,-294.14 -698.40,-290.82"/>
	</edge>
	<edge id=":O_10" function="internal">
		<lane id=":O_10_0" index="0" speed="13.89" length="24.76" shape="-682.44,-298.40 -707.20,-298.40"/>
	</edge>
	<edge id=":O_11" function="internal">
		<lane id=":O_11_0" index="0" speed="9.85" length="8.78" shape="-682.44,-298.40 -688.40,-299.16 -691.05,-300.00"/>
	</edge>
	<edge id=":O_22" function="internal">
		<lane id=":O_22_0" index="0" speed="9.85" length="13.28" shape="-691.05,-300.00 -694.66,-301.15 -699.60,-303.97 -701.60,-307.20"/>
	</edge>
	<edge id=":O_12" function="internal">
		<lane id=":O_12_0" index="0" speed="8.99" length="18.20" shape="-698.40,-307.20 -697.40,-304.75 -694.41,-303.00 -689.43,-301.95 -682.44,-301.60"/>
	</edge>
	<edge id=":O_13" function="internal">
		<lane id=":O_13_0" index="0" speed="8.45" length="20.87" shape="-698.40,-307.20 -697.47,-304.02 -694.70,-300.69 -690.07,-297.21 -683.58,-293.58"/>
	</edge>
	<edge id=":O_14" function="internal">
		<lane id=":O_14_0" index="0" speed="13.89" length="16.38" shape="-698.40,-307.20 -698.40,-290.82"/>
	</edge>
	<edge id=":O_15" function="internal">
		<lane id=":O_15_0" index="0" speed="8.00" length="4.07" shape="-698.40,-307.20 -698.95,-303.35 -699.04,-303.20"/>
	</edge>
	<edge id=":O_23" function="internal">
		<lane id=":O_23_0" index="0" speed="8.00" length="10.13" shape="-699.04,-303.20 -700.60,-300.60 -703.35,-298.95 -707.20,-298.40"/>
	</edge>
	<edge id=":O_16" function="internal">
		<lane id=":O_16_0" index="0" speed="6.51" length="9.03" shape="-707.20,-301.60 -704.75,-301.95 -703.00,-303.00 -701.95,-304.75 -701.60,-307.20"/>
	</edge>
	<edge id=":O_17" function="internal">
		<lane id=":O_17_0" index="0" speed="13.89" length="24.76" shape="-707.20,-301.60 -682.44,-301.60"/>
	</edge>
	<edge id=":O_18" function="internal">
		<lane id=":O_18_0" index="0" speed="8.45" length="4.00" shape="-707.20,-301.60 -703.26,-300.89"/>
	</edge>
	<edge id=":O_19" function="internal">
		<lane id=":O_19_0" index="0" speed="8.42" length="3.91" shape="-707.20,-301.60 -703.35,-300.93"/>
	</edge>
	<edge id=":O_24" function="internal">
		<lane id=":O_24_0" index="0" speed="8.45" length="21.03" shape="-703.26,-300.89 -702.03,-300.66 -695.19,-298.43 -688.46,-295.78 -683.58,-293.58"/>
	</edge>
	<edge id=":O_25" function="internal">
		<lane id=":O_25_0" index="0" speed="8.42" length="11.91" shape="-703.35,-300.93 -700.60,-298.91 -698.95,-295.54 -698.40,-290.82"/>
	</edge>
	<edge id=":P_0" function="internal">
		<lane id=":P_0_0" index="0" speed="6.08" length="7.74" shape="-598.40,-303.20 -598.70,-301.10 -599.60,-299.60 -601.10,-298.70 -603.20,-298.40"/>
	</edge>
	<edge id=":P_1" function="internal">
		<lane id=":P_1_0" index="0" speed="3.90" length="2.58" shape="-603.20,-301.60 -602.50,-301.70 -602.00,-302.00 -601.70,-302.50 -601.60,-303.20"/>
	</edge>
	<edge id=":Q_0" function="internal">
		<lane id=":Q_0_0" index="0" speed="6.08" length="7.74" shape="-696.80,-98.40 -698.90,-98.70 -700.40,-99.60 -701.30,-101.10 -701.60,-103.20"/>
	</edge>
	<edge id=":Q_1" function="internal">
		<lane id=":Q_1_0" index="0" speed="3.90" length="2.58" shape="-698.40,-103.20 -698.30,-102.50 -698.00,-102.00 -697.50,-101.70 -696.80,-101.60"/>
	</edge>
	<edge id=":R_0" function="internal">
		<lane id=":R_0_0" index="0" speed="13.89" length="22.31" shape="-295.24,-98.40 -317.56,-98.40"/>
	</edge>
	<edge id=":R_1" function="internal">
		<lane id=":R_1_0" index="0" speed="13.89" length="3.73" shape="-295.24,-98.40 -298.90,-99.12"/>
	</edge>
	<edge id=":R_6" function="internal">
		<lane id=":R_6_0" index="0" speed="13.89" length="19.02" shape="-298.90,-99.12 -300.03,-99.34 -306.03,-101.57 -311.93,-104.22 -316.42,-106.42"/>
	</edge>
	<edge id=":R_2" function="internal">
		<lane id=":R_2_0" index="0" speed="8.45" length="21.29" shape="-314.99,-109.28 -310.72,-107.14 -305.31,-104.60 -299.81,-102.49 -295.24,-101.60"/>
	</edge>
	<edge id=":R_3" function="internal">
		<lane id=":R_3_0" index="0" speed="6.26" length="15.29" shape="-314.99,-109.28 -312.17,-106.41 -311.86,-102.80 -313.75,-99.71 -317.56,-98.40"/>
	</edge>
	<edge id=":R_4" function="internal">
		<lane id=":R_4_0" index="0" speed="5.60" length="11.85" shape="-317.56,-101.60 -313.44,-101.90 -311.88,-102.80 -312.87,-104.31 -316.42,-106.42"/>
	</edge>
	<edge id=":R_5" function="internal">
		<lane id=":R_5_0" index="0" speed="13.89" length="22.31" shape="-317.56,-101.60 -295.24,-101.60"/>
	</edge>
	<edge id="-E1" from="I" to="F" priority="-1">
		<lane id="-E1_0" index="0" speed="13.89" length="416.10" shape="-812.84,-104.63 -1185.01,-290.72"/>
	</edge>
	<edge id="-E10" from="B" to="C" priority="-1">
		<lane id="-E10_0" index="0" speed="13.89" length="89.60" shape="-1207.20,-598.40 -1296.80,-598.40"/>
	</edge>
	<edge id="-E11" from="B" to="D" priority="-1">
		<lane id="-E11_0" index="0" speed="13.89" length="89.60" shape="-1192.80,-601.60 -1103.20,-601.60"/>
	</edge>
	<edge id="-E12" from="A" to="B" priority="-1">
		<lane id="-E12_0" index="0" speed="13.89" length="92.80" shape="-1198.40,-700.00 -1198.40,-607.20"/>
	</edge>
	<edge id="-E2" from="H" to="F" priority="-1">
		<lane id="-E2_0" index="0" speed="13.89" length="187.62" shape="-1201.60,-103.20 -1201.60,-290.82"/>
	</edge>
	<edge id="-E3" from="I" to="H" priority="-1">
		<lane id="-E3_0" index="0" speed="13.89" length="383.24" shape="-813.56,-98.40 -1196.80,-98.40"/>
	</edge>
	<edge id="-E35" from="L" to="J" priority="-1">
		<lane id="-E35_0" index="0" speed="13.89" length="92.80" shape="-701.60,-607.20 -701.60,-700.00"/>
	</edge>
	<edge id="-E36" from="M" to="L" priority="-1">
		<lane id="-E36_0" index="0" speed="13.89" length="89.60" shape="-603.20,-598.40 -692.80,-598.40"/>
	</edge>
	<edge id="-E37" from="K" to="L" priority="-1">
		<lane id="-E37_0" index="0" speed="13.89" length="89.60" shape="-796.80,-601.60 -707.20,-601.60"/>
	</edge>
	<edge id="-E38" from="N" to="K" priority="-1">
		<lane id="-E38_0" index="0" speed="13.89" length="293.60" shape="-801.60,-303.20 -801.60,-596.80"/>
	</edge>
	<edge id="-E39" from="P" to="M" priority="-1">
		<lane id="-E39_0" index="0" speed="13.89" length="293.60" shape="-601.60,-303.20 -601.60,-596.80"/>
	</edge>
	<edge id="-E40" from="O" to="L" priority="-1">
		<lane id="-E40_0" index="0" speed="13.89" length="285.60" shape="-701.60,-307.20 -701.60,-592.80"/>
	</edge>
	<edge id="-E41" from="O" to="N" priority="-1">
		<lane id="-E41_0" index="0" speed="13.89" length="89.60" shape="-707.20,-298.40 -796.80,-298.40"/>
	</edge>
	<edge id="-E42" from="O" to="P" priority="-1">
		<lane id="-E42_0" index="0" speed="13.89" length="79.24" shape="-682.44,-301.60 -603.20,-301.60"/>
	</edge>
	<edge id="-E43" from="Q" to="O" priority="-1">
		<lane id="-E43_0" index="0" speed="13.89" length="187.62" shape="-701.60,-103.20 -701.60,-290.82"/>
	</edge>
	<edge id="-E44" from="R" to="Q" priority="-1">
		<lane id="-E44_0" index="0" speed="13.89" length="379.24" shape="-317.56,-98.40 -696.80,-98.40"/>
	</edge>
	<edge id="-E45" from="R" to="O" priority="-1">
		<lane id="-E45_0" index="0" speed="13.89" length="412.10" shape="-316.42,-106.42 -685.01,-290.72"/>
	</edge>
	<edge id="-E46" from="S" to="R" priority="-1">
		<lane id="-E46_0" index="0" speed="13.89" length="95.24" shape="-200.00,-98.40 -295.24,-98.40"/>
	</edge>
	<edge id="-E460" from="F" to="B" priority="-1">
		<lane id="-E460_0" index="0" speed="13.89" length="285.60" shape="-1201.60,-307.20 -1201.60,-592.80"/>
	</edge>
	<edge id="-E6" from="E" to="F" priority="-1">
		<lane id="-E6_0" index="0" speed="13.89" length="89.60" shape="-1296.80,-301.60 -1207.20,-301.60"/>
	</edge>
	<edge id="-E7" from="G" to="F" priority="-1">
		<lane id="-E7_0" index="0" speed="13.89" length="79.24" shape="-1103.20,-298.40 -1182.44,-298.40"/>
	</edge>
	<edge id="-E8" from="D" to="G" priority="-1">
		<lane id="-E8_0" index="0" speed="13.89" length="293.60" shape="-1098.40,-596.80 -1098.40,-303.20"/>
	</edge>
	<edge id="-E9" from="C" to="E" priority="-1">
		<lane id="-E9_0" index="0" speed="13.89" length="293.60" shape="-1298.40,-596.80 -1298.40,-303.20"/>
	</edge>
	<edge id="E1" from="F" to="I" priority="-1">
		<lane id="E1_0" index="0" speed="3.00" length="416.10" shape="-1183.58,-293.58 -811.41,-107.49"/>
	</edge>
	<edge id="E10" from="C" to="B" priority="-1">
		<lane id="E10_0" index="0" speed="13.89" length="89.60" shape="-1296.80,-601.60 -1207.20,-601.60"/>
	</edge>
	<edge id="E11" from="D" to="B" priority="-1">
		<lane id="E11_0" index="0" speed="13.89" length="89.60" shape="-1103.20,-598.40 -1192.80,-598.40"/>
	</edge>
	<edge id="E12" from="B" to="A" priority="-1">
		<lane id="E12_0" index="0" speed="13.89" length="92.80" shape="-1201.60,-607.20 -1201.60,-700.00"/>
	</edge>
	<edge id="E2" from="F" to="H" priority="-1">
		<lane id="E2_0" index="0" speed="13.89" length="187.62" shape="-1198.40,-290.82 -1198.40,-103.20"/>
	</edge>
	<edge id="E3" from="H" to="I" priority="-1">
		<lane id="E3_0" index="0" speed="13.89" length="383.24" shape="-1196.80,-101.60 -813.56,-101.60"/>
	</edge>
	<edge id="E36" from="L" to="M" priority="-1">
		<lane id="E36_0" index="0" speed="13.89" length="89.60" shape="-692.80,-601.60 -603.20,-601.60"/>
	</edge>
	<edge id="E37" from="L" to="K" priority="-1">
		<lane id="E37_0" index="0" speed="13.89" length="89.60" shape="-707.20,-598.40 -796.80,-598.40"/>
	</edge>
	<edge id="E38" from="K" to="N" priority="-1">
		<lane id="E38_0" index="0" speed="13.89" length="293.60" shape="-798.40,-596.80 -798.40,-303.20"/>
	</edge>
	<edge id="E39" from="M" to="P" priority="-1">
		<lane id="E39_0" index="0" speed="13.89" length="293.60" shape="-598.40,-596.80 -598.40,-303.20"/>
	</edge>
	<edge id="E40" from="L" to="O" priority="-1">
		<lane id="E40_0" index="0" speed="13.89" length="285.60" shape="-698.40,-592.80 -698.40,-307.20"/>
	</edge>
	<edge id="E41" from="N" to="O" priority="-1">
		<lane id="E41_0" index="0" speed="13.89" length="89.60" shape="-796.80,-301.60 -707.20,-301.60"/>
	</edge>
	<edge id="E42" from="P" to="O" priority="-1">
		<lane id="E42_0" index="0" speed="13.89" length="79.24" shape="-603.20,-298.40 -682.44,-298.40"/>
	</edge>
	<edge id="E43" from="O" to="Q" priority="-1">
		<lane id="E43_0" index="0" speed="13.89" length="187.62" shape="-698.40,-290.82 -698.40,-103.20"/>
	</edge>
	<edge id="E44" from="Q" to="R" priority="-1">
		<lane id="E44_0" index="0" speed="13.89" length="379.24" shape="-696.80,-101.60 -317.56,-101.60"/>
	</edge>
	<edge id="E45" from="O" to="R" priority="-1">
		<lane id="E45_0" index="0" speed="3.00" length="412.10" shape="-683.58,-293.58 -314.99,-109.28"/>
	</edge>
	<edge id="E46" from="B" to="F" priority="-1">
		<lane id="E46_0" index="0" speed="13.89" length="285.60" shape="-1198.40,-592.80 -1198.40,-307.20"/>
	</edge>
	<edge id="E6" from="F" to="E" priority="-1">
		<lane id="E6_0" index="0" speed="13.89" length="89.60" shape="-1207.20,-298.40 -1296.80,-298.40"/>
	</edge>
	<edge id="E7" from="F" to="G" priority="-1">
		<lane id="E7_0" index="0" speed="13.89" length="79.24" shape="-1182.44,-301.60 -1103.20,-301.60"/>
	</edge>
	<edge id="E8" from="G" to="D" priority="-1">
		<lane id="E8_0" index="0" speed="13.89" length="293.60" shape="-1101.60,-303.20 -1101.60,-596.80"/>
	</edge>
	<edge id="E9" from="E" to="C" priority="-1">
		<lane id="E9_0" index="0" speed="13.89" length="293.60" shape="-1301.60,-303.20 -1301.60,-596.80"/>
	</edge>
	<edge id="qwd" from="J" to="L" priority="-1">
		<lane id="qwd_0" index="0" speed="13.89" length="92.80" shape="-698.40,-700.00 -698.40,-607.20"/>
	</edge>
	<edge id="qwdqw" from="R" to="S" priority="-1">
		<lane id="qwdqw_0" index="0" speed="13.89" length="95.24" shape="-295.24,-101.60 -200.00,-101.60"/>
	</edge>
	<tlLogic id="J1" type="static" programID="0" offset="0">
		<phase duration="27" state="GGggrrrrrrrrGGGgrrrr"/>
		<phase duration="3" state="yyyyrrrrrrrryyyyrrrr"/>
		<phase duration="27" state="rrrrrrrrGGGgrrrrGGgg"/>
		<phase duration="3" state="rrrrrrrryyyyrrrryyyy"/>
		<phase duration="27" state="rrrrGGGGGrrrrrrrrrrr"/>
		<phase duration="3" state="rrrryyyyyrrrrrrrrrrr"/>
	</tlLogic>
	<tlLogic id="J34" type="static" programID="0" offset="0">
		<phase duration="27" state="GGggrrrrrrrrGGGgrrrr"/>
		<phase duration="3" state="yyyyrrrrrrrryyyyrrrr"/>