<?xml version="1.0" encoding="UTF-8"?>

<!-- generated on 2023-05-28 23:33:24 by Eclipse SUMO sumo Version 1.17.0
-->

<configuration xmlns:xsi="http://www.w3.org/2001/XMLSchema-instance" xsi:noNamespaceSchemaLocation="http://sumo.dlr.de/xsd/sumoConfiguration.xsd">

    <input>
        <net-file value="charge.net.xml"/>
        <additional-files value="charge.add.xml"/>
    </input>

</configuration>
