<?xml version="1.0" encoding="UTF-8"?>

<!-- generated on 2023-05-28 23:33:24 by Eclipse SUMO netedit Version 1.17.0
-->

<additional xmlns:xsi="http://www.w3.org/2001/XMLSchema-instance" xsi:noNamespaceSchemaLocation="http://sumo.dlr.de/xsd/additional_file.xsd">
    <!-- StoppingPlaces -->
    <chargingStation id="cs_0" lane="E62_0" startPos="13.19" endPos="63.19"/>
    <chargingStation id="cs_1" lane="E63_0" startPos="10.84" endPos="60.84"/>
</additional>
